2ilt_lig_NN1
                    3D
 Structure written by MMmdl.
 56 59  0  0  1  0            999 V2000
   25.4820   74.2350  111.5400 C   0  0  0  0  0  0
   18.5650   74.9160  117.6130 C   0  0  0  0  0  0
   26.4770   74.1310  110.5860 C   0  0  0  0  0  0
   25.7100   74.9530  112.7000 C   0  0  0  0  0  0
   26.9290   75.5490  112.9190 C   0  0  0  0  0  0
   27.9210   75.4350  111.9680 C   0  0  0  0  0  0
   21.8680   74.5410  114.3100 C   0  0  1  0  0  0
   23.3560   76.1070  115.5940 C   0  0  0  0  0  0
   21.0840   75.7390  113.8070 C   0  0  1  0  0  0
   19.9480   75.9860  114.7820 C   0  0  0  0  0  0
   20.4990   76.2840  116.1700 C   0  0  1  0  0  0
   21.3610   75.1200  116.6560 C   0  0  0  0  0  0
   23.2440   71.4890  111.1640 C   0  0  0  0  0  0
   24.0030   72.4260  112.0700 C   0  0  0  0  0  0
   25.2340   71.7020  112.5760 C   0  0  0  0  0  0
   24.2430   73.6320  111.3120 O   0  0  0  0  0  0
   23.1080   72.7480  113.2400 C   0  0  0  0  0  0
   22.6830   71.9020  114.0190 O   0  0  0  0  0  0
   22.8250   74.0810  113.3410 N   0  0  0  0  0  0
   22.4860   74.8610  115.6660 C   0  0  1  0  0  0
   22.5230   77.2890  115.1210 C   0  0  1  0  0  0
   21.9590   76.9810  113.7440 C   0  0  0  0  0  0
   21.3720   77.5260  116.0910 C   0  0  0  0  0  0
   19.1330   76.5610  117.2780 S   0  0  0  0  0  0
   19.6370   77.1260  118.5130 O   0  0  0  0  0  0
   18.0580   77.2040  116.5450 O   0  0  0  0  0  0
   27.7000   74.7300  110.8040 C   0  0  0  0  0  0
   26.2290   73.2480  109.1190 Cl  0  0  0  0  0  0
   29.1230   76.0190  112.1740 F   0  0  0  0  0  0
   17.7130   74.9550  118.2930 H   0  0  0  0  0  0
   18.2620   74.4390  116.6810 H   0  0  0  0  0  0
   19.3680   74.3390  118.0700 H   0  0  0  0  0  0
   24.9280   75.0470  113.4390 H   0  0  0  0  0  0
   27.1050   76.1010  113.8300 H   0  0  0  0  0  0
   21.1760   73.7670  114.6410 H   0  0  0  0  0  0
   23.7620   76.3250  116.5810 H   0  0  0  0  0  0
   24.1740   75.9390  114.8930 H   0  0  0  0  0  0
   20.6810   75.5210  112.8180 H   0  0  0  0  0  0
   19.3570   76.8360  114.4430 H   0  0  0  0  0  0
   19.3140   75.1000  114.8320 H   0  0  0  0  0  0
   21.7870   75.3640  117.6290 H   0  0  0  0  0  0
   20.7460   74.2240  116.7430 H   0  0  0  0  0  0
   22.3520   71.9900  110.7880 H   0  0  0  0  0  0
   23.8780   71.1990  110.3270 H   0  0  0  0  0  0
   22.9510   70.6000  111.7240 H   0  0  0  0  0  0
   25.7990   72.3620  113.2350 H   0  0  0  0  0  0
   24.9310   70.8110  113.1280 H   0  0  0  0  0  0
   25.8580   71.4100  111.7310 H   0  0  0  0  0  0
   23.2890   74.7430  112.7350 H   0  0  0  0  0  0
   23.1190   74.0320  115.9830 H   0  0  0  0  0  0
   23.1530   78.1770  115.0620 H   0  0  0  0  0  0
   22.7810   76.8130  113.0490 H   0  0  0  0  0  0
   21.3630   77.8280  113.4020 H   0  0  0  0  0  0
   20.7750   78.3680  115.7420 H   0  0  0  0  0  0
   21.7750   77.7520  117.0790 H   0  0  0  0  0  0
   28.4810   74.6460  110.0630 H   0  0  0  0  0  0
  1  3  2  0  0  0
  1  4  1  0  0  0
  1 16  1  0  0  0
  2 24  1  0  0  0
  2 30  1  0  0  0
  2 31  1  0  0  0
  2 32  1  0  0  0
  3 27  1  0  0  0
  3 28  1  0  0  0
  4  5  2  0  0  0
  4 33  1  0  0  0
  5  6  1  0  0  0
  5 34  1  0  0  0
  6 27  2  0  0  0
  6 29  1  0  0  0
  7  9  1  0  0  0
  7 19  1  0  0  0
  7 20  1  0  0  0
  7 35  1  0  0  0
  8 20  1  0  0  0
  8 21  1  0  0  0
  8 36  1  0  0  0
  8 37  1  0  0  0
  9 10  1  0  0  0
  9 22  1  0  0  0
  9 38  1  0  0  0
 10 11  1  0  0  0
 10 39  1  0  0  0
 10 40  1  0  0  0
 11 12  1  0  0  0
 11 23  1  0  0  0
 11 24  1  0  0  0
 12 20  1  0  0  0
 12 41  1  0  0  0
 12 42  1  0  0  0
 13 14  1  0  0  0
 13 43  1  0  0  0
 13 44  1  0  0  0
 13 45  1  0  0  0
 14 15  1  0  0  0
 14 16  1  0  0  0
 14 17  1  0  0  0
 15 46  1  0  0  0
 15 47  1  0  0  0
 15 48  1  0  0  0
 17 18  2  0  0  0
 17 19  1  0  0  0
 19 49  1  0  0  0
 20 50  1  0  0  0
 21 22  1  0  0  0
 21 23  1  0  0  0
 21 51  1  0  0  0
 22 52  1  0  0  0
 22 53  1  0  0  0
 23 54  1  0  0  0
 23 55  1  0  0  0
 24 25  2  0  0  0
 24 26  2  0  0  0
 27 56  1  0  0  0
M  END
> <s_m_entry_id>
2

> <s_m_entry_name>
P28845.2

$$$$
2rbe_lig_ZMG
                    3D
 Structure written by MMmdl.
 30 31  0  0  1  0            999 V2000
   24.7120   71.8430  110.5140 C   0  0  0  0  0  0
   25.9870   72.2840  110.9310 C   0  0  0  0  0  0
   26.2250   72.6460  112.2770 C   0  0  0  0  0  0
   25.1620   72.5290  113.2020 C   0  0  0  0  0  0
   23.8710   72.0840  112.8140 C   0  0  0  0  0  0
   23.6480   71.7430  111.4570 C   0  0  0  0  0  0
   22.8440   71.9810  113.7150 N   0  0  0  0  0  0
   22.1250   73.0380  114.1490 C   0  0  0  0  0  0
   22.2300   74.6260  113.4090 S   0  0  0  0  0  0
   20.9890   75.3020  114.5500 C   0  0  1  0  0  0
   20.4880   74.1050  115.3730 C   0  0  0  0  0  0
   21.1650   72.9710  115.0880 N   0  0  0  0  0  0
   25.4070   72.8340  114.4820 F   0  0  0  0  0  0
   19.5790   74.1870  116.1990 O   0  0  0  0  0  0
   21.5080   76.3980  115.5120 C   0  0  0  0  0  0
   22.5740   75.9110  116.5070 C   0  0  0  0  0  0
   22.0270   77.6050  114.7420 C   0  0  0  0  0  0
   24.5420   71.5810  109.4800 H   0  0  0  0  0  0
   26.7960   72.3470  110.2170 H   0  0  0  0  0  0
   27.2000   73.0020  112.5760 H   0  0  0  0  0  0
   22.6730   71.4070  111.1380 H   0  0  0  0  0  0
   20.1840   75.7650  113.9790 H   0  0  0  0  0  0
   20.6660   76.8540  116.0330 H   0  0  0  0  0  0
   22.8840   76.7390  117.1430 H   0  0  0  0  0  0
   22.1590   75.1140  117.1250 H   0  0  0  0  0  0
   23.4360   75.5320  115.9590 H   0  0  0  0  0  0
   22.3850   78.3580  115.4450 H   0  0  0  0  0  0
   22.8460   77.2970  114.0920 H   0  0  0  0  0  0
   21.2230   78.0250  114.1380 H   0  0  0  0  0  0
   22.5902   71.0784  114.0905 H   0  0  0  0  0  0
  1  2  2  0  0  0
  1  6  1  0  0  0
  1 18  1  0  0  0
  2  3  1  0  0  0
  2 19  1  0  0  0
  3  4  2  0  0  0
  3 20  1  0  0  0
  4  5  1  0  0  0
  4 13  1  0  0  0
  5  6  2  0  0  0
  5  7  1  0  0  0
  6 21  1  0  0  0
  7  8  1  0  0  0
  7 30  1  0  0  0
  8  9  1  0  0  0
  8 12  2  0  0  0
  9 10  1  0  0  0
 10 11  1  0  0  0
 10 15  1  0  0  0
 10 22  1  0  0  0
 11 12  1  0  0  0
 11 14  2  0  0  0
 15 16  1  0  0  0
 15 17  1  0  0  0
 15 23  1  0  0  0
 16 24  1  0  0  0
 16 25  1  0  0  0
 16 26  1  0  0  0
 17 27  1  0  0  0
 17 28  1  0  0  0
 17 29  1  0  0  0
M  END
> <s_m_entry_id>
1

> <s_m_entry_name>
P28845.1

$$$$
3bzu_lig_A21
                    3D
 Structure written by MMmdl.
 33 34  0  0  1  0            999 V2000
   24.0810   73.8450  110.3210 F   0  0  0  0  0  0
   24.0330   72.7010  110.9710 C   0  0  0  0  0  0
   22.8820   72.1280  110.7020 F   0  0  0  0  0  0
   24.9750   71.8930  110.5180 F   0  0  0  0  0  0
   24.2180   72.9220  112.4780 C   0  0  1  0  0  0
   23.9860   71.6320  113.2330 C   0  0  0  0  0  0
   24.6520   70.6300  113.0270 O   0  0  0  0  0  0
   22.9990   71.7450  114.1100 N   0  0  0  0  0  0
   25.6240   73.4460  112.7690 C   0  0  0  0  0  0
   23.0470   74.0890  113.1130 S   0  0  0  0  0  0
   22.4980   72.9180  114.1800 C   0  0  0  0  0  0
   21.5530   73.2280  115.0780 N   0  0  0  0  0  0
   20.9420   74.5420  115.1910 C   0  0  1  0  0  0
   19.6270   74.4290  115.9480 C   0  0  0  0  0  0
   21.8060   75.5040  115.9140 C   0  0  0  0  0  0
   21.7550   76.8660  115.6050 C   0  0  0  0  0  0
   20.9360   77.3210  114.6310 F   0  0  0  0  0  0
   22.6650   75.0630  116.9030 C   0  0  0  0  0  0
   23.4580   75.9660  117.5870 C   0  0  0  0  0  0
   23.4060   77.3180  117.2850 C   0  0  0  0  0  0
   22.5510   77.7720  116.2840 C   0  0  0  0  0  0
   25.7410   73.5990  113.8420 H   0  0  0  0  0  0
   26.3620   72.7220  112.4230 H   0  0  0  0  0  0
   25.7730   74.3930  112.2500 H   0  0  0  0  0  0
   20.7540   74.9430  114.1960 H   0  0  0  0  0  0
   19.1700   75.4140  116.0330 H   0  0  0  0  0  0
   18.9540   73.7610  115.4100 H   0  0  0  0  0  0
   19.8140   74.0290  116.9450 H   0  0  0  0  0  0
   22.7180   74.0110  117.1420 H   0  0  0  0  0  0
   24.1240   75.6200  118.3630 H   0  0  0  0  0  0
   24.0290   78.0150  117.8250 H   0  0  0  0  0  0
   22.5070   78.8220  116.0370 H   0  0  0  0  0  0
   21.2254   72.5282  115.7284 H   0  0  0  0  0  0
  1  2  1  0  0  0
  2  3  1  0  0  0
  2  4  1  0  0  0
  2  5  1  0  0  0
  5  6  1  0  0  0
  5  9  1  0  0  0
  5 10  1  0  0  0
  6  7  2  0  0  0
  6  8  1  0  0  0
  8 11  2  0  0  0
  9 22  1  0  0  0
  9 23  1  0  0  0
  9 24  1  0  0  0
 10 11  1  0  0  0
 11 12  1  0  0  0
 12 13  1  0  0  0
 12 33  1  0  0  0
 13 14  1  0  0  0
 13 15  1  0  0  0
 13 25  1  0  0  0
 14 26  1  0  0  0
 14 27  1  0  0  0
 14 28  1  0  0  0
 15 16  2  0  0  0
 15 18  1  0  0  0
 16 17  1  0  0  0
 16 21  1  0  0  0
 18 19  2  0  0  0
 18 29  1  0  0  0
 19 20  1  0  0  0
 19 30  1  0  0  0
 20 21  2  0  0  0
 20 31  1  0  0  0
 21 32  1  0  0  0
M  END
> <s_m_entry_id>
3

> <s_m_entry_name>
P28845.3

$$$$
3ch6_lig_311
                    3D
 Structure written by MMmdl.
 47 49  0  0  1  0            999 V2000
   20.9290   74.3970  115.1860 C   0  0  0  0  0  0
   28.2650   75.3080  110.7800 C   0  0  0  0  0  0
   23.1790   72.6080  112.5830 C   0  0  0  0  0  0
   25.2170   73.2850  111.6800 C   0  0  0  0  0  0
   26.3660   74.1670  111.8310 C   0  0  0  0  0  0
   22.2910   72.8250  113.7670 C   0  0  0  0  0  0
   21.4630   75.6790  115.9360 C   0  0  0  0  0  0
   21.4050   76.8170  114.9180 C   0  0  0  0  0  0
   21.9370   75.2400  113.0420 C   0  0  0  0  0  0
   29.9560   76.7130  111.9880 C   0  0  0  0  0  0
   23.0420   75.4210  116.2400 C   0  0  0  0  0  0
   20.6640   76.0470  117.2440 C   0  0  0  0  0  0
   23.9680   71.5160  110.6660 C   0  0  0  0  0  0
   25.0630   72.3640  110.6990 C   0  0  0  0  0  0
   23.0090   71.6880  111.6050 C   0  0  0  0  0  0
   27.9560   75.5320  113.1800 C   0  0  0  0  0  0
   26.8110   74.7000  113.0800 C   0  0  0  0  0  0
   27.1310   74.4580  110.6640 C   0  0  0  0  0  0
   22.4800   76.4660  113.7420 C   0  0  0  0  0  0
   28.6850   75.8720  112.0070 C   0  0  0  0  0  0
   24.3240   73.3320  112.6500 N   0  0  0  0  0  0
   21.7390   74.1140  113.9720 N   0  0  0  0  0  0
   22.1650   71.8560  114.4980 O   0  0  0  0  0  0
   28.9290   75.7000  109.6340 F   0  0  0  0  0  0
   20.9870   73.5360  115.8530 H   0  0  0  0  0  0
   19.8940   74.5560  114.8860 H   0  0  0  0  0  0
   20.3980   76.8870  114.5080 H   0  0  0  0  0  0
   21.6640   77.7560  115.4060 H   0  0  0  0  0  0
   20.9750   75.4770  112.5860 H   0  0  0  0  0  0
   22.6360   74.9230  112.2680 H   0  0  0  0  0  0
   30.1630   77.0830  112.9920 H   0  0  0  0  0  0
   30.7910   76.1020  111.6480 H   0  0  0  0  0  0
   29.8240   77.5570  111.3100 H   0  0  0  0  0  0
   23.4580   76.2850  116.7590 H   0  0  0  0  0  0
   23.1520   74.5340  116.8630 H   0  0  0  0  0  0
   23.5740   75.2730  115.3000 H   0  0  0  0  0  0
   21.0960   76.9400  117.6960 H   0  0  0  0  0  0
   19.6210   76.2380  116.9910 H   0  0  0  0  0  0
   20.7200   75.2180  117.9500 H   0  0  0  0  0  0
   23.9010   70.7490  109.9090 H   0  0  0  0  0  0
   25.8040   72.2790  109.9170 H   0  0  0  0  0  0
   22.1090   71.0920  111.5750 H   0  0  0  0  0  0
   28.2710   75.9040  114.1440 H   0  0  0  0  0  0
   26.2700   74.4740  113.9870 H   0  0  0  0  0  0
   26.8610   74.0450  109.7030 H   0  0  0  0  0  0
   22.5600   77.3100  113.0580 H   0  0  0  0  0  0
   23.4540   76.2680  114.1880 H   0  0  0  0  0  0
  1  7  1  0  0  0
  1 22  1  0  0  0
  1 25  1  0  0  0
  1 26  1  0  0  0
  2 18  2  0  0  0
  2 20  1  0  0  0
  2 24  1  0  0  0
  3  6  1  0  0  0
  3 15  2  0  0  0
  3 21  1  0  0  0
  4  5  1  0  0  0
  4 14  1  0  0  0
  4 21  2  0  0  0
  5 17  2  0  0  0
  5 18  1  0  0  0
  6 22  1  0  0  0
  6 23  2  0  0  0
  7  8  1  0  0  0
  7 11  1  0  0  0
  7 12  1  0  0  0
  8 19  1  0  0  0
  8 27  1  0  0  0
  8 28  1  0  0  0
  9 19  1  0  0  0
  9 22  1  0  0  0
  9 29  1  0  0  0
  9 30  1  0  0  0
 10 20  1  0  0  0
 10 31  1  0  0  0
 10 32  1  0  0  0
 10 33  1  0  0  0
 11 34  1  0  0  0
 11 35  1  0  0  0
 11 36  1  0  0  0
 12 37  1  0  0  0
 12 38  1  0  0  0
 12 39  1  0  0  0
 13 14  2  0  0  0
 13 15  1  0  0  0
 13 40  1  0  0  0
 14 41  1  0  0  0
 15 42  1  0  0  0
 16 17  1  0  0  0
 16 20  2  0  0  0
 16 43  1  0  0  0
 17 44  1  0  0  0
 18 45  1  0  0  0
 19 46  1  0  0  0
 19 47  1  0  0  0
M  END
> <s_m_entry_id>
4

> <s_m_entry_name>
P28845.4

$$$$
3d4n_lig_D4N
                    3D
 Structure written by MMmdl.
 57 59  0  0  1  0            999 V2000
   30.4050   75.4800  110.1310 O   0  0  0  0  0  0
   28.4330   75.9540  111.3520 C   0  0  0  0  0  0
   22.9770   77.2340  115.7840 C   0  0  0  0  0  0
   29.1890   75.4070  110.1650 C   0  0  0  0  0  0
   21.7900   76.2860  115.6390 C   0  0  2  0  0  0
   29.1900   75.9470  112.6750 C   0  0  0  0  0  0
   21.3300   75.7750  117.0020 C   0  0  0  0  0  0
   22.2180   75.1340  114.7720 C   0  0  0  0  0  0
   21.8140   75.0850  113.4430 C   0  0  0  0  0  0
   22.2030   74.0280  112.6280 C   0  0  0  0  0  0
   23.0070   73.0140  113.1310 C   0  0  0  0  0  0
   23.4090   73.0610  114.4620 C   0  0  0  0  0  0
   23.0210   74.1180  115.2800 C   0  0  0  0  0  0
   29.0210   77.2510  111.8950 C   0  0  0  0  0  0
   25.9920   72.3120  112.0830 C   0  0  0  0  0  0
   23.3260   77.6890  114.5960 F   0  0  0  0  0  0
   23.9810   76.5760  116.3240 F   0  0  0  0  0  0
   22.6810   78.2600  116.5570 F   0  0  0  0  0  0
   20.7120   76.9820  115.0030 O   0  0  0  0  0  0
   23.4620   71.8000  112.1900 S   0  0  0  0  0  0
   22.3720   71.4350  111.3340 O   0  0  0  0  0  0
   23.7810   70.6740  113.0210 O   0  0  0  0  0  0
   24.7610   72.1530  111.2670 N   0  0  0  0  0  0
   24.5190   73.2350  110.2680 C   0  0  2  0  0  0
   25.1500   72.8260  108.9410 C   0  0  0  0  0  0
   25.0370   74.6140  110.6620 C   0  0  0  0  0  0
   26.4030   73.7540  112.3620 C   0  0  0  0  0  0
   26.4230   74.5210  111.1180 N   0  3  2  0  0  0
   26.9100   75.8800  111.3860 C   0  0  0  0  0  0
   28.4700   74.8580  109.1900 N   0  0  0  0  0  0
   28.5290   75.6010  113.4700 H   0  0  0  0  0  0
   30.0470   75.2780  112.6000 H   0  0  0  0  0  0
   20.4830   75.1010  116.8710 H   0  0  0  0  0  0
   22.1470   75.2410  117.4850 H   0  0  0  0  0  0
   21.0300   76.6180  117.6240 H   0  0  0  0  0  0
   21.1940   75.8710  113.0370 H   0  0  0  0  0  0
   21.8800   73.9930  111.5980 H   0  0  0  0  0  0
   24.0260   72.2730  114.8680 H   0  0  0  0  0  0
   23.3430   74.1490  116.3100 H   0  0  0  0  0  0
   29.7400   77.6520  111.1810 H   0  0  0  0  0  0
   28.2220   77.9750  112.0510 H   0  0  0  0  0  0
   25.8490   71.8370  113.0530 H   0  0  0  0  0  0
   26.8320   71.8440  111.5700 H   0  0  0  0  0  0
   19.9610   76.3920  114.9080 H   0  0  0  0  0  0
   23.4470   73.4120  110.1760 H   0  0  0  0  0  0
   24.9800   73.6080  108.2010 H   0  0  0  0  0  0
   26.2210   72.6810  109.0770 H   0  0  0  0  0  0
   24.6990   71.8960  108.5950 H   0  0  0  0  0  0
   24.9900   75.2810  109.8010 H   0  0  0  0  0  0
   24.4230   75.0170  111.4670 H   0  0  0  0  0  0
   25.6900   74.2080  113.0510 H   0  0  0  0  0  0
   27.3980   73.7690  112.8070 H   0  0  0  0  0  0
   26.5540   76.1830  112.3710 H   0  0  0  0  0  0
   26.4960   76.5460  110.6280 H   0  0  0  0  0  0
   27.4630   74.8200  109.2650 H   0  0  0  0  0  0
   28.9310   74.4780  108.3760 H   0  0  0  0  0  0
   26.9707   74.0211  110.4323 H   0  0  0  0  0  0
  1  4  2  0  0  0
  2  4  1  0  0  0
  2  6  1  0  0  0
  2 14  1  0  0  0
  2 29  1  0  0  0
  3  5  1  0  0  0
  3 16  1  0  0  0
  3 17  1  0  0  0
  3 18  1  0  0  0
  4 30  1  0  0  0
  5  7  1  0  0  0
  5  8  1  0  0  0
  5 19  1  0  0  0
  6 14  1  0  0  0
  6 31  1  0  0  0
  6 32  1  0  0  0
  7 33  1  0  0  0
  7 34  1  0  0  0
  7 35  1  0  0  0
  8  9  2  0  0  0
  8 13  1  0  0  0
  9 10  1  0  0  0
  9 36  1  0  0  0
 10 11  2  0  0  0
 10 37  1  0  0  0
 11 12  1  0  0  0
 11 20  1  0  0  0
 12 13  2  0  0  0
 12 38  1  0  0  0
 13 39  1  0  0  0
 14 40  1  0  0  0
 14 41  1  0  0  0
 15 23  1  0  0  0
 15 27  1  0  0  0
 15 42  1  0  0  0
 15 43  1  0  0  0
 19 44  1  0  0  0
 20 21  2  0  0  0
 20 22  2  0  0  0
 20 23  1  0  0  0
 23 24  1  0  0  0
 24 25  1  0  0  0
 24 26  1  0  0  0
 24 45  1  0  0  0
 25 46  1  0  0  0
 25 47  1  0  0  0
 25 48  1  0  0  0
 26 28  1  0  0  0
 26 49  1  0  0  0
 26 50  1  0  0  0
 27 28  1  0  0  0
 27 51  1  0  0  0
 27 52  1  0  0  0
 28 29  1  0  0  0
 28 57  1  0  0  0
 29 53  1  0  0  0
 29 54  1  0  0  0
 30 55  1  0  0  0
 30 56  1  0  0  0
M  CHG  1  28   1
M  END
> <s_m_entry_id>
5

> <s_m_entry_name>
P28845.5

$$$$
3frj_lig_A49
                    3D
 Structure written by MMmdl.
 63 66  0  0  1  0            999 V2000
   28.5680   75.2840  109.5180 O   0  0  0  0  0  0
   29.3470   76.0130  110.1310 C   0  0  0  0  0  0
   30.6150   76.0000  109.8720 N   0  0  0  0  0  0
   28.8680   76.8680  111.2860 C   0  0  0  0  0  0
   29.7610   76.9960  112.4920 C   0  0  0  0  0  0
   29.6580   78.1530  111.4890 C   0  0  0  0  0  0
   27.3920   77.1280  111.4150 C   0  0  0  0  0  0
   26.6470   75.8680  111.6010 N   0  3  1  0  0  0
   26.9880   75.2150  112.9320 C   0  0  0  0  0  0
   26.3360   73.8360  112.9150 C   0  0  0  0  0  0
   25.2130   76.2330  111.5790 C   0  0  0  0  0  0
   24.3760   74.9850  111.6340 C   0  0  0  0  0  0
   24.8290   74.1180  112.8500 C   0  0  1  0  0  0
   23.9490   72.9720  112.8160 N   0  0  0  0  0  0
   24.4690   71.6900  112.2150 C   0  0  0  0  0  0
   24.1870   71.7200  110.7060 C   0  0  0  0  0  0
   23.3140   70.8930  111.6120 C   0  0  0  0  0  0
   23.1600   72.9080  113.9970 C   0  0  0  0  0  0
   22.7160   71.8260  114.3810 O   0  0  0  0  0  0
   22.6140   74.1360  114.6620 C   0  0  0  0  0  0
   22.9710   74.5480  115.9370 C   0  0  0  0  0  0
   22.3410   75.6490  116.5290 C   0  0  0  0  0  0
   21.6150   74.8160  113.9340 C   0  0  0  0  0  0
   21.0190   75.9300  114.4710 C   0  0  0  0  0  0
   21.3740   76.3380  115.7570 C   0  0  0  0  0  0
   20.6740   77.5530  116.3040 C   0  0  2  0  0  0
   20.1820   77.3060  117.7240 C   0  0  0  0  0  0
   19.5680   77.9110  115.4500 O   0  0  0  0  0  0
   21.6400   78.7230  116.2500 C   0  0  0  0  0  0
   20.9210   79.6960  116.7250 F   0  0  0  0  0  0
   21.9800   78.9480  115.0010 F   0  0  0  0  0  0
   22.7600   78.5290  116.9330 F   0  0  0  0  0  0
   31.2666   76.5753  110.3839 H   0  0  0  0  0  0
   30.9428   75.4124  109.1174 H   0  0  0  0  0  0
   29.2956   77.1368  113.4657 H   0  0  0  0  0  0
   30.6942   76.4350  112.5180 H   0  0  0  0  0  0
   30.5292   78.3636  110.8708 H   0  0  0  0  0  0
   29.1254   79.0469  111.8101 H   0  0  0  0  0  0
   27.1956   77.8141  112.2420 H   0  0  0  0  0  0
   27.0662   77.6278  110.4998 H   0  0  0  0  0  0
   26.8861   75.2551  110.8244 H   0  0  0  0  0  0
   28.0609   75.0559  113.0291 H   0  0  0  0  0  0
   26.6781   75.8234  113.7846 H   0  0  0  0  0  0
   26.6836   73.2465  112.0642 H   0  0  0  0  0  0
   26.5863   73.2798  113.8206 H   0  0  0  0  0  0
   24.9619   76.8909  112.4145 H   0  0  0  0  0  0
   24.9643   76.7765  110.6649 H   0  0  0  0  0  0
   23.3183   75.2468  111.6973 H   0  0  0  0  0  0
   24.5111   74.4505  110.6957 H   0  0  0  0  0  0
   24.6849   74.7601  113.7186 H   0  0  0  0  0  0
   25.3241   71.1590  112.6295 H   0  0  0  0  0  0
   23.6676   72.5484  110.2331 H   0  0  0  0  0  0
   24.8714   71.1779  110.0558 H   0  0  0  0  0  0
   23.4280   69.8114  111.5662 H   0  0  0  0  0  0
   22.2914   71.2341  111.7676 H   0  0  0  0  0  0
   23.7034   73.9847  116.4983 H   0  0  0  0  0  0
   22.6106   75.9540  117.5296 H   0  0  0  0  0  0
   21.3045   74.4656  112.9590 H   0  0  0  0  0  0
   20.2721   76.4256  113.8677 H   0  0  0  0  0  0
   19.5875   78.1403  118.0964 H   0  0  0  0  0  0
   19.5474   76.4200  117.7645 H   0  0  0  0  0  0
   20.9979   77.1640  118.4315 H   0  0  0  0  0  0
   19.3048   78.7886  115.6904 H   0  0  0  0  0  0
  1  2  2  0  0  0
  2  3  1  0  0  0
  2  4  1  0  0  0
  3 33  1  0  0  0
  3 34  1  0  0  0
  4  5  1  0  0  0
  4  6  1  0  0  0
  4  7  1  0  0  0
  5  6  1  0  0  0
  5 35  1  0  0  0
  5 36  1  0  0  0
  6 37  1  0  0  0
  6 38  1  0  0  0
  7  8  1  0  0  0
  7 39  1  0  0  0
  7 40  1  0  0  0
  8  9  1  0  0  0
  8 11  1  0  0  0
  8 41  1  0  0  0
  9 10  1  0  0  0
  9 42  1  0  0  0
  9 43  1  0  0  0
 10 13  1  0  0  0
 10 44  1  0  0  0
 10 45  1  0  0  0
 11 12  1  0  0  0
 11 46  1  0  0  0
 11 47  1  0  0  0
 12 13  1  0  0  0
 12 48  1  0  0  0
 12 49  1  0  0  0
 13 14  1  0  0  0
 13 50  1  0  0  0
 14 15  1  0  0  0
 14 18  1  0  0  0
 15 16  1  0  0  0
 15 17  1  0  0  0
 15 51  1  0  0  0
 16 17  1  0  0  0
 16 52  1  0  0  0
 16 53  1  0  0  0
 17 54  1  0  0  0
 17 55  1  0  0  0
 18 19  2  0  0  0
 18 20  1  0  0  0
 20 21  2  0  0  0
 20 23  1  0  0  0
 21 22  1  0  0  0
 21 56  1  0  0  0
 22 25  2  0  0  0
 22 57  1  0  0  0
 23 24  2  0  0  0
 23 58  1  0  0  0
 24 25  1  0  0  0
 24 59  1  0  0  0
 25 26  1  0  0  0
 26 27  1  0  0  0
 26 28  1  0  0  0
 26 29  1  0  0  0
 27 60  1  0  0  0
 27 61  1  0  0  0
 27 62  1  0  0  0
 28 63  1  0  0  0
 29 30  1  0  0  0
 29 31  1  0  0  0
 29 32  1  0  0  0
M  CHG  1   8   1
M  END
> <s_m_entry_id>
10

> <s_m_entry_name>
P28845.6

> <s_m_job_name>
impact_mini

> <r_i_Potential_Energy-OPLS2005>
-112.498159394767

> <r_i_RMS_Derivative-OPLS2005>
0.00072668718538021

> <r_i_Max_Derivative-OPLS2005>
0.00336189258230335

> <r_i_Stretch_Energy-OPLS2005>
0.0491585074264766

> <r_i_Bend_Energy-OPLS2005>
4.22626342496607

> <r_i_Dihedral_Energy-OPLS2005>
9.50410017807997

> <r_i_LJ-14_Energy-OPLS2005>
5.66925918395552

> <r_i_El-14_Energy-OPLS2005>
19.5884769646357

> <r_i_Van_der_Waals_Energy-OPLS2005>
1.37464912626137

> <r_i_Electrostatic_Energy-OPLS2005>
-152.910066780092

> <r_i_target_temperature>
298

$$$$
3h6k_lig_33T
                    3D
 Structure written by MMmdl.
 49 51  0  0  1  0            999 V2000
   23.7350   75.5200  112.4100 C   0  0  0  0  0  0
   22.7460   74.3590  112.4770 C   0  0  2  0  0  0
   21.4280   74.7240  113.1820 C   0  0  0  0  0  0
   21.5950   74.7790  114.6390 N   0  0  0  0  0  0
   22.1140   73.5480  115.2430 C   0  0  0  0  0  0
   23.4630   73.1850  114.6300 C   0  0  0  0  0  0
   23.3600   73.1560  113.1360 N   0  0  0  0  0  0
   23.5220   71.6670  112.2790 S   0  0  0  0  0  0
   24.0720   70.6660  113.1730 O   0  0  0  0  0  0
   22.2900   71.4310  111.5550 O   0  0  0  0  0  0
   24.8360   72.0270  111.1310 C   0  0  0  0  0  0
   24.5650   71.9410  109.7530 C   0  0  0  0  0  0
   25.5640   72.2160  108.8070 C   0  0  0  0  0  0
   26.8470   72.5780  109.2420 C   0  0  0  0  0  0
   27.1130   72.6630  110.6200 C   0  0  0  0  0  0
   26.1130   72.3880  111.5620 C   0  0  0  0  0  0
   26.5650   72.5120  113.2230 Cl  0  0  0  0  0  0
   27.9600   72.8860  108.3060 C   0  0  0  0  0  0
   28.3700   72.0290  107.5240 O   0  0  0  0  0  0
   28.4860   74.1590  108.3870 N   0  0  0  0  0  0
   20.5830   75.4100  115.3970 C   0  0  0  0  0  0
   19.2600   74.9160  115.4160 C   0  0  0  0  0  0
   18.2560   75.5330  116.1690 C   0  0  0  0  0  0
   18.5560   76.6640  116.9110 C   0  0  0  0  0  0
   19.8470   77.1800  116.9220 C   0  0  0  0  0  0
   20.8640   76.5670  116.1680 C   0  0  0  0  0  0
   22.2500   77.1540  116.1980 C   0  0  0  0  0  0
   22.8180   77.2290  114.9600 F   0  0  0  0  0  0
   22.3010   78.4190  116.7050 F   0  0  0  0  0  0
   23.0970   76.4210  116.9720 F   0  0  0  0  0  0
   17.5960   77.2590  117.6350 F   0  0  0  0  0  0
   24.6430   75.1960  111.9010 H   0  0  0  0  0  0
   23.2880   76.3490  111.8620 H   0  0  0  0  0  0
   23.9830   75.8450  113.4210 H   0  0  0  0  0  0
   22.5560   73.9850  111.4700 H   0  0  0  0  0  0
   21.0890   75.7000  112.8370 H   0  0  0  0  0  0
   20.6710   73.9740  112.9510 H   0  0  0  0  0  0
   22.2400   73.6940  116.3160 H   0  0  0  0  0  0
   21.4130   72.7330  115.0670 H   0  0  0  0  0  0
   24.2060   73.9270  114.9210 H   0  0  0  0  0  0
   23.7720   72.2020  114.9860 H   0  0  0  0  0  0
   23.5790   71.6600  109.4130 H   0  0  0  0  0  0
   25.3420   72.1490  107.7520 H   0  0  0  0  0  0
   28.0980   72.9450  110.9640 H   0  0  0  0  0  0
   29.2440   74.4320  107.7790 H   0  0  0  0  0  0
   28.1130   74.8180  109.0560 H   0  0  0  0  0  0
   19.0020   74.0400  114.8400 H   0  0  0  0  0  0
   17.2550   75.1270  116.1680 H   0  0  0  0  0  0
   20.0740   78.0560  117.5110 H   0  0  0  0  0  0
  1  2  1  0  0  0
  1 32  1  0  0  0
  1 33  1  0  0  0
  1 34  1  0  0  0
  2  3  1  0  0  0
  2  7  1  0  0  0
  2 35  1  0  0  0
  3  4  1  0  0  0
  3 36  1  0  0  0
  3 37  1  0  0  0
  4  5  1  0  0  0
  4 21  1  0  0  0
  5  6  1  0  0  0
  5 38  1  0  0  0
  5 39  1  0  0  0
  6  7  1  0  0  0
  6 40  1  0  0  0
  6 41  1  0  0  0
  7  8  1  0  0  0
  8  9  2  0  0  0
  8 10  2  0  0  0
  8 11  1  0  0  0
 11 12  2  0  0  0
 11 16  1  0  0  0
 12 13  1  0  0  0
 12 42  1  0  0  0
 13 14  2  0  0  0
 13 43  1  0  0  0
 14 15  1  0  0  0
 14 18  1  0  0  0
 15 16  2  0  0  0
 15 44  1  0  0  0
 16 17  1  0  0  0
 18 19  2  0  0  0
 18 20  1  0  0  0
 20 45  1  0  0  0
 20 46  1  0  0  0
 21 22  2  0  0  0
 21 26  1  0  0  0
 22 23  1  0  0  0
 22 47  1  0  0  0
 23 24  2  0  0  0
 23 48  1  0  0  0
 24 25  1  0  0  0
 24 31  1  0  0  0
 25 26  2  0  0  0
 25 49  1  0  0  0
 26 27  1  0  0  0
 27 28  1  0  0  0
 27 29  1  0  0  0
 27 30  1  0  0  0
M  END
> <s_m_entry_id>
7

> <s_m_entry_name>
P28845.7

$$$$
3hfg_lig_17R
                    3D
 Structure written by MMmdl.
 51 54  0  0  1  0            999 V2000
   23.9810   75.0670  112.3610 C   0  0  0  0  0  0
   22.7720   74.1410  112.3950 C   0  0  2  0  0  0
   21.6010   74.7770  113.1830 C   0  0  0  0  0  0
   21.8280   74.7560  114.6470 N   0  0  0  0  0  0
   22.3340   73.5090  115.2430 C   0  0  0  0  0  0
   23.5540   72.9950  114.4850 C   0  0  0  0  0  0
   23.1700   72.8540  113.0520 N   0  0  0  0  0  0
   23.5300   71.4090  112.2560 S   0  0  0  0  0  0
   24.0240   70.4830  113.2470 O   0  0  0  0  0  0
   22.4050   71.0670  111.4180 O   0  0  0  0  0  0
   24.9040   71.8470  111.2170 C   0  0  0  0  0  0
   24.9630   71.3070  109.9300 C   0  0  0  0  0  0
   26.0330   71.6400  109.1030 C   0  0  0  0  0  0
   27.0310   72.5070  109.5560 C   0  0  0  0  0  0
   26.9640   73.0480  110.8500 C   0  0  0  0  0  0
   25.8950   72.7160  111.6870 C   0  0  0  0  0  0
   27.9930   73.9290  111.2790 N   0  0  0  0  0  0
   28.0470   74.7680  112.3680 C   0  0  0  0  0  0
   29.1920   75.4170  112.4080 N   0  0  0  0  0  0
   29.8410   74.9510  111.3090 C   0  0  0  0  0  0
   29.1580   74.0500  110.5930 N   0  0  0  0  0  0
   20.8610   75.3720  115.4330 C   0  0  0  0  0  0
   19.5850   74.8240  115.6020 C   0  0  0  0  0  0
   18.6290   75.4530  116.3930 C   0  0  0  0  0  0
   18.9550   76.6380  117.0180 C   0  0  0  0  0  0
   20.2140   77.2040  116.8730 C   0  0  0  0  0  0
   21.1740   76.5670  116.0740 C   0  0  0  0  0  0
   22.5490   77.1300  115.8730 C   0  0  0  0  0  0
   22.7830   77.4160  114.5650 F   0  0  0  0  0  0
   22.8030   78.2940  116.5490 F   0  0  0  0  0  0
   23.5400   76.2700  116.2440 F   0  0  0  0  0  0
   18.0410   77.2420  117.7840 F   0  0  0  0  0  0
   24.7870   74.5920  111.8010 H   0  0  0  0  0  0
   23.7070   76.0050  111.8790 H   0  0  0  0  0  0
   24.3160   75.2670  113.3790 H   0  0  0  0  0  0
   22.4420   73.9350  111.3770 H   0  0  0  0  0  0
   21.4800   75.8160  112.8770 H   0  0  0  0  0  0
   20.6830   74.2280  112.9770 H   0  0  0  0  0  0
   22.6190   73.6900  116.2790 H   0  0  0  0  0  0
   21.5560   72.7460  115.2080 H   0  0  0  0  0  0
   24.3730   73.7060  114.5900 H   0  0  0  0  0  0
   23.8570   72.0310  114.8930 H   0  0  0  0  0  0
   24.1850   70.6400  109.5890 H   0  0  0  0  0  0
   26.0940   71.2280  108.1070 H   0  0  0  0  0  0
   27.8570   72.7650  108.9090 H   0  0  0  0  0  0
   25.8290   73.1220  112.6860 H   0  0  0  0  0  0
   27.2110   74.8240  113.0490 H   0  0  0  0  0  0
   30.8310   75.3120  111.0720 H   0  0  0  0  0  0
   19.3270   73.8960  115.1130 H   0  0  0  0  0  0
   17.6500   75.0120  116.5090 H   0  0  0  0  0  0
   20.4490   78.1310  117.3740 H   0  0  0  0  0  0
  1  2  1  0  0  0
  1 33  1  0  0  0
  1 34  1  0  0  0
  1 35  1  0  0  0
  2  3  1  0  0  0
  2  7  1  0  0  0
  2 36  1  0  0  0
  3  4  1  0  0  0
  3 37  1  0  0  0
  3 38  1  0  0  0
  4  5  1  0  0  0
  4 22  1  0  0  0
  5  6  1  0  0  0
  5 39  1  0  0  0
  5 40  1  0  0  0
  6  7  1  0  0  0
  6 41  1  0  0  0
  6 42  1  0  0  0
  7  8  1  0  0  0
  8  9  2  0  0  0
  8 10  2  0  0  0
  8 11  1  0  0  0
 11 12  2  0  0  0
 11 16  1  0  0  0
 12 13  1  0  0  0
 12 43  1  0  0  0
 13 14  2  0  0  0
 13 44  1  0  0  0
 14 15  1  0  0  0
 14 45  1  0  0  0
 15 16  2  0  0  0
 15 17  1  0  0  0
 16 46  1  0  0  0
 17 18  1  0  0  0
 17 21  1  0  0  0
 18 19  2  0  0  0
 18 47  1  0  0  0
 19 20  1  0  0  0
 20 21  2  0  0  0
 20 48  1  0  0  0
 22 23  2  0  0  0
 22 27  1  0  0  0
 23 24  1  0  0  0
 23 49  1  0  0  0
 24 25  2  0  0  0
 24 50  1  0  0  0
 25 26  1  0  0  0
 25 32  1  0  0  0
 26 27  2  0  0  0
 26 51  1  0  0  0
 27 28  1  0  0  0
 28 29  1  0  0  0
 28 30  1  0  0  0
 28 31  1  0  0  0
M  END
> <s_m_entry_id>
8

> <s_m_entry_name>
P28845.8

$$$$
3tfq_lig_07M
                    3D
 Structure written by MMmdl.
 35 37  0  0  1  0            999 V2000
   20.9760   76.0170  116.5830 C   0  0  0  0  0  0
   22.4210   75.6760  116.8990 C   0  0  0  0  0  0
   25.8790   75.0170  110.9170 C   0  0  0  0  0  0
   26.3500   75.6760  112.0910 O   0  0  0  0  0  0
   25.2450   75.9980  112.9480 C   0  0  0  0  0  0
   25.3320   73.6220  111.2710 C   0  0  0  0  0  0
   24.4330   73.6360  112.4910 C   0  0  0  0  0  0
   24.4190   74.7750  113.3170 C   0  0  0  0  0  0
   23.5910   74.7780  114.4370 C   0  0  0  0  0  0
   22.8400   73.7240  114.7460 N   0  0  0  0  0  0
   22.8750   72.6040  114.0210 C   0  0  0  0  0  0
   23.6480   72.5230  112.8480 C   0  0  0  0  0  0
   23.6280   71.3260  112.0360 C   0  0  0  0  0  0
   23.5580   70.3760  111.3780 N   0  0  0  0  0  0
   22.0660   71.5900  114.4330 O   0  0  0  0  0  0
   23.4910   76.1620  115.5030 S   0  0  0  0  0  0
   20.5380   77.3520  116.7200 C   0  0  0  0  0  0
   19.2470   77.6810  116.5260 N   0  0  0  0  0  0
   18.3260   76.7770  116.1590 C   0  0  0  0  0  0
   18.6950   75.4280  115.9740 C   0  0  0  0  0  0
   20.0250   75.0280  116.2450 C   0  0  0  0  0  0
   21.5000   78.3660  117.0870 C   0  0  0  0  0  0
   22.3060   79.1440  117.3700 N   0  0  0  0  0  0
   22.7330   76.2100  117.7960 H   0  0  0  0  0  0
   22.5130   74.6020  117.0670 H   0  0  0  0  0  0
   25.0830   75.6080  110.4630 H   0  0  0  0  0  0
   26.7000   74.9080  110.2070 H   0  0  0  0  0  0
   25.6180   76.4420  113.8710 H   0  0  0  0  0  0
   24.5870   76.7070  112.4440 H   0  0  0  0  0  0
   24.7520   73.2350  110.4340 H   0  0  0  0  0  0
   26.1630   72.9470  111.4780 H   0  0  0  0  0  0
   22.2250   73.7600  115.5460 H   0  0  0  0  0  0
   17.3020   77.0820  116.0040 H   0  0  0  0  0  0
   17.9640   74.7110  115.6290 H   0  0  0  0  0  0
   20.3190   73.9900  116.1970 H   0  0  0  0  0  0
  1  2  1  0  0  0
  1 17  2  0  0  0
  1 21  1  0  0  0
  2 16  1  0  0  0
  2 24  1  0  0  0
  2 25  1  0  0  0
  3  4  1  0  0  0
  3  6  1  0  0  0
  3 26  1  0  0  0
  3 27  1  0  0  0
  4  5  1  0  0  0
  5  8  1  0  0  0
  5 28  1  0  0  0
  5 29  1  0  0  0
  6  7  1  0  0  0
  6 30  1  0  0  0
  6 31  1  0  0  0
  7  8  1  0  0  0
  7 12  2  0  0  0
  8  9  2  0  0  0
  9 10  1  0  0  0
  9 16  1  0  0  0
 10 11  1  0  0  0
 10 32  1  0  0  0
 11 12  1  0  0  0
 11 15  2  0  0  0
 12 13  1  0  0  0
 13 14  3  0  0  0
 17 18  1  0  0  0
 17 22  1  0  0  0
 18 19  2  0  0  0
 19 20  1  0  0  0
 19 33  1  0  0  0
 20 21  2  0  0  0
 20 34  1  0  0  0
 21 35  1  0  0  0
 22 23  3  0  0  0
M  END
> <s_m_entry_id>
9

> <s_m_entry_name>
P28845.9

$$$$
